V1 5 0 2 EXP (2 5 1 0.2 2 0.5)	 
V2 3 2 0.2 PULSE (0.2 1 1 0.1 0.4 0.5 2)
V3 7 6 2
I1 4 8 1e-3 SIN (1e-3 0.5 5 1 1 30)
I2 0 6 1e-3 PWL (0 1e-3) (1.2 0.1) (1.4 1) (2 0.2) (3 0.4)
R1 1 5 1.5
R2 1 2 1
R3 5 2 50	
*.dc v1 0 2 0.5
.options iter itol=1e-5 sparse
R4 5 6 0.1
R5 2 6 1.5		
R6 3 4 0.1
R7 8 0 1e3
*.Options sparse
.PloT v3 v6 v0 v1 v5 v8 v7 v4 v2		
.options METHOD=BE
.TRAN 0.1 0.2
*.print	v 	4
* fasdfs
  *
*C1 1 3 5
*L1 5 2 10

R8 4 0 10 

