VIN 1 0 0 sin(0 5 1000 0 0 0)
R1 1 0 100
.tran 0.00001 0.002
.plot tran v(1)
.options gnuplotlp method=be

